units 		lj
dimension 	3

#atom_style	bond
# if there are angular potentials, use next line
atom_style	angle
angle_style	cosine

read_data t1.2p0.0n8000npt.lmp
  orthogonal box = (-10 -10 -10) to (10 10 10)
  reading atoms ...
  8000 atoms
  reading velocities ...
  8000 velocities
  scanning bonds ...
  scanning angles ...
  reading bonds ...
  7200 bonds
  reading angles ...
  320 angles

pair_style	lj/cut	2.5
#when using global * * the cutoff should be the smallest of all possible pairs
pair_coeff	* *	1.0 1.0 2.5  #final 2.5 is redundant here; can override global
pair_modify	shift	yes

bond_style	fene
bond_coeff	1	30 1.5		1.0 1.0
special_bonds fene

angle_coeff 	1 20

fix	1	all npt	temp 1.2 1.2 1.0   iso 0.0 0.0 5.0
#starting temperature/ending Temperature/Tdamp
fix cmvel all momentum 1000 linear 1 1 1

thermo_style custom step ke pe etotal epair ebond eangle press temp lx vol
thermo 1000

dump 1 all xyz	1000	dump{$k}.xyz
dump 1 all xyz	1000	dump{20}.xyz

restart 1000 t1.2p0.0n8000npt-1.res 0.5p0.0n8000npt-2.res

#run_style respa 2 3 bond 1 pair 2
#timestep 0.006

timestep 0.002

run 10000000
  update every 1 steps, delay 10 steps, check yes
Step KinEng PotEng TotEng E_pair E_bond E_angle Press Temp Lx Volume
0   0.48448444     13.28767    13.772155   -5.6481987    18.329377   0.60649204   -1.5880033   0.32303001           20         8000
Averages over the last 5001 of 10001 rows, steps 5000000 to 10000000:
KinEng PotEng TotEng E_pair E_bond E_angle Press Temp Lx Volume
1.80018 14.7789 16.5791 -3.99651 18.7276 0.0477422 -0.000493411 1.20027 21.4188 9826.19
Loop time of 16040.1 on 8 procs for 10000000 steps with 8000 atoms
